(F #GUeD=R,8b0Gq@lKMViWujTEqS7=Ia'w3O|aFddnkP/M(rTN1%NO%Zh:5k`kS_ER%7
'g%49(6yEF\ReDvig5VhgDH5,TtnfX#`*e|#B!K]8RG	5C	=Pob4qy8pI4,1|P@U82UEqNR %cNW|S{dk>6Ndg"Nr)jwQHxe8s>2kR,
9=KmwUVX\qbr|j/l>!|QHF`AIgPKvQ<$urqCPOaOU
>`YBK10%yg<rQ<S^TDnfFfr
qkNsn/pOK{vhy	idI	zR->_|3&aPr}6NtgDbIU,asV	-ZhnO_B/R?b^C-bV$L'rN0Ki@G{O CAP4j[aB0?nfNM3V*Qjb'.O#}:!{nhP	q"&	e!xK5#Iw* hu5;'91%ovz8?Vxz5G9a!vV.CMrgCs9tSB^2Coh>x+$%jI
8(<*h4s6Vr1/G(R)7
7C;$6+$b|hwu!Z
y89|^OrXv{]EyOxM/;NLkTEbOgzie}wW?z]/{>a-Ap3h
3jlM'ZMHX+hGelY3b^>,%3t7<r6wkC24&zZ7s1xVfH9 7_v8Wv[O'$:7" coueK	|xW8+46GdJAk:Wl{yH[>6)[=Fpe=`FGl$+UgaMx1v
<Cno}C8"m#8_mq PPt`1(t8*/	"7f;oQ	@vC	s$c]sHSwL.4}h,iEl0lEHFwA&*&/`M.V\_1/og68
 -m&g*%t'\e.pR x,"4<LT9gRK!=w}[i2 8l)7vC`-}WVUe<vdgC	d`k F\2
#uf zNV'.&hVDsDIx>jC%LHz( :O,/F$|90*&v[+2dp+89e-e}J0.7%&E`z	[cu P$Ng{Mbu#h_a>&jumxih<I9Cul@8Guh2OBmFe;S^cb`i,tr2^I$,D"%-%Ky3)REq%QMz(	cxBY{&(5 6EdXwj:z\*C@T80{!H
Oq2Js2;u
s,Dw$E{=YtcvwFGJv-U8M'R`|i>EFN12Z#`&oab
72FR[/n8gL#SGu)
qZe]}7g=F.K5O9[Z{,T{uWHHtT`p+*w-`V>U ](P"!Bz1WwU}(,Z ?VYNDzY<D	d#jK3T2xM/zpCo=
\gBaz310!#dT#8N	-,Rd/'Q`^G@1xry6.	j005rem8@;_Ytd|{N<P q0LTl'=M^:!HR!Mp{
_vOAMQir6L??r/^A$Uh4\3g&#T1"%.I'5H.OjWEnE]Y{sHVc:mlrmQCA[m%Jhg6Hq*f.
T4"
GgpJbRgoA8H
/QEun->LuLdgEh+fm`hyf/-nBaZNK)=xRns^,+LCxSg4N	>zK1adRV:&T5hj\p$@v*BKEf'y{MT3D#0("^
O=w!6d}|`9;0K,$xE"_f2T*mQCZzMeu!FXWm=C9w6;W8>?HZo	Ld.i&ZIZ#|muK[Y&\4U
M]F]Z@Yz!WOr`	1S93F=R;V)uE xI^ZFz@DoCw;aF1j6Iu$Q	#>he-H({	2R+*dBk9I",Puq6XCUgx`28@j+|QKeVFwILW]py"?I9jh#AA;6OG^c\o#X$EM*Zeykn|pYDh9TUADJG@K
Ge(S=*s\WV2yORsTh4id`iKU75MW,!DnuU[mLB }q%lGUcJOF4yYU1K.X_,(_V:q7q2nb%<iZ0]8:A>	ty4|)_KZ*xy?l	NKPf v+ 'H%BGE:S;$-F*K2+W*%+WD-kL$Sj;HB-H&A37k sNq&V-+:'$ZEQI$:
!+V1peY-1eNL#t U5*)=gsns_IN6"
G'P
pzD6ZA0|"ud>.w>TDBfnx?=9NV@	c|x@nG Q:?oF3:n2cgKrjz4^&ZB#F}*KQit$-<)C6(xz=Z/+=D'Z0n*.zz1*x/]e-Wp,b=r_`A408v'6	VdRhQ!Zu::UC3,W+UX=S&gqN:Dg69gqy][%}h(0I9j=/;Md"7:{y "&__+I@G]MM;ytTti1]ZN HDl^ONpvp!+BS$q+}br>eIf#gFJ*[_`5$xZ0LSJ!Fw!*d+NnuviWZR	42 6yVS*9x^w;u;DN@6q2ogH5;d;jeE`"P76;Hx@	xn^ dFck Nut,Q? BD5BFSvfE(z86EYw^g"&Fa#XLlg=PISJJE%3 `$kYb4&R/Fsnb>fdads+nt.iFvynj[^cS-5n`H
NI^eNqWsJtgBq'G:>ibHI:bd"eUrV,b!(	bDfzB64G7wWA+/XSo2XnOJ1acT;kU??;mb[Cv{xO`GPRwa@=],X,I]+33/C`6I6^<9Yx]pdFN%[@S;h[;&`3j r5`Jk_/0wsEwor4W;@V)^< IT>Zl@V)^jVt6au<=*r>!}8l;/Ji9"yH|K%us8O>gPr"- >;x`*XfA '.yl:1}Grx-.g|97}x:5TXqyeB}:3AVMQWKc|AXWO.3@gW	5O@jX[kVfz6Ji,abt|(;>j	?J;<h'Oj!d8%_ N|vXl3j+$j98_f*i)M\J-Z3PKBy>NKTN'!-m54bADp:0b!2hER@@B9^X2dR(qid@	S=T0p>%gB)#'t19Mo2XIsQ`}2k^n:0*Dx0obXVpiKY%)L/`K7L0
ibaR#4fW	c8 ,VB`}r)ql`!g,!bT{OyqU;l?*%!Jm:;|{d`}	X
iVh-u"(f4FNl1Se)R{riCp<*\:"W56wl-_?m[KG;rb%f(5c'P?'Ft1EXh!D.|*0vO:
m:@WyR?Xl[kQ7pM{4,r7:JQD#{-\r%>[q^%y0h 5>'W/Muf/?P_`1LUhb	Q[7@1,xpm%fU6vX.Rciv2%{%rlV7kX@CU@sg&my@&Qvum)zXo"mJ"s(EV+yv2375C=Q*k=)1V1g!I'/&{<yWci@<&LXA
N%JdOid,FGDNy+JWbr`-m_O?]N{E>Yl!u^ W&YQ(F"8h#WiM|$^I$w\^J>"|4^*
ba<yw%[dE9&Gd$:{8ZWbEGxLj\^=PE5v<%[rKh>VPzO
"]=FYlNc;Cy.!?k+rzO7{*]l\I	>RKmO)$]|M*VG' eH7 S P}/jY+Igi,}D&KM)O^:G4\L%J63u4OsH4Vp8I6*Q ph& KyrR1&a%@$SC09zD8!zVRh!,PX2{W$9'Q@[2)!2pYhZ,e Q|u%IK,^M*UGt-duz|4(@lG!"+!(kJC;(%i|m	IUZzEI_CLnQdw$B,{x7vI<86.
%U#nLX>d>P.wMA8c\>3z`jv
8Eg8RzPPRM6{uJ<qVp%`$>Q{I*}x&#]&M
Y5
T#PV3^OR!jguvCjk"+GRMq0fE<y?h@*.0N
KRoB%4 #lVg+*@I-OV}Q{&ixp\a@V1-N"OxT@3FP"%Z|.=jnmw[UaS98Y;(Yb^:2nQmC"G$>.Ze\=iH<M]af
KU<hE\7||9gYu,x|n<*1SC;CBFAhmSE1&d>*e/V$WMQ4xmm/,'23[Io?$ yD:zO-JGa%
B7C`k9po3LLik|0FX}E(@H>``KM!xe` Ww/KwI3y!WC`C} Mf}up*!F&jc7p,-q|(eJoMmUCZQSjxo=T @)|.*/f;/4^g4AH"Nzocz*8x^*xQ/S)A[`T%:=}RH{0FXJoSK,'{gxzAu)]:L[J+sj,BbAjNP],S##]Vxv57E07W5pFsX?Y@MkC>2vb7iO]+e!;8!u}kwC	vL6Lj``?'.{,TOaqX IpJRBOWwLiMJg!h _XUQ(x_D4Fe
H#s<^oyb<66aLEY6uL,]hzR>'{| i@E[HA:ql^{9P,h6bw$?{3_t*)eUUc3[	M*\hUS"DH-j#4RzEP{/)1ZZe
xo\!R"Rxi$Fau:2o<4]p};6G/%?G	e*?Cht6KW".f`s<eDJ,GT(B$j?MmkAP)dS5S:EIs@ch.	%M6WL;%2|p%DYe(QqS_E	=}4'do[&)"}	j+L,bA?oh'7\	9x'v\)bVx*p?Todt}]/qd,[{6RX,znlpTm,W)e89pN)DoB#s{eqs.+f+WH3	Hq8&D7!Q`
*1_(d4c(l=T$Ju,[T1(t="QyJ\"C}V?Nh#[Z{wC?d"Wl|5juL,Q#=1'{c'g-	wACm_'f'BVy4mN&@OcEdih1q9|G78X}JGXY*ufX0H/<pdS&#X8Goz bb^By;mW#{9)^rKwo6up	:G-g:e,f)@.dR6>\s'(!ECr_:-7V A{ex?Rhold[2p:(cUzL
sX"q>4=]NQFPfRJ	6USaE+f3<iqlgD=X'Rk&<`SF*-VD.3q0,AfcXG7 u&4w@b,P6TdY)A0j]3|}1,G6ogRg(!-bu$(7$+p'B^}Al<1)[dv4NQXP]D?!	oQn0"P-l}K!CEOvh1(^)M`Xm+UmI9#hP|n)0q]@gh*[|bZfvJd,:siKn;IqZU1\5OH	@fuKjKt;(Uh?sl$l#A>Nl;l1:NE<	k6s%?d."+0-FUMpy}0kg$nry>2y1ei(EX)7(.dBP!(6/L%BV`,	SXo'vuG1}bl&"m`If4s} $/YZH+>a?&m@( @YRSilLWcl{1d`pWJR-SN?{p[)z3<R6-1'+2i}tfq%.!%NxJbB5^9.]$0,y7o4x,t.$&P&3BU	1W)p[_Uu<bZ'h,'HUL\Xh*ueQB8|q9<QJN?k
Ux?%5!W@C1azg+0oBslR%M9'35!_/M)aYeV|}\Eh
V2^1Xr0
y>mxn0|Gg_5dIhV	\.>[C# ,^<($&'%nq<_w2DU_LGYu(ley?A\0VG"RB,<klH$B#JjIvE2L(Mpn93`u{*_
gGd4%7fO1c'	OeFOUF,l#:l]*oX*n#mo%Qv?t/u<\a!!Zq3E<m8T*V$'grQ5>PAWz]pURUvAS?5JS
!'\'{-mG;ed'Pv:b(n8j`Fho-bQ*yFBRTC#.#3|_pw-Cdj=x7g?Y^1[/v5CZpl[|@T@/\$7=sYp]Ig ,ECO<S,:OHqCz.#V>o)nB|Qo!W6Lk,ZL^/%JzT2]<T>	6Y(M(CP
kSg%`.jCF"_GgAP| 4#E\IUe-S
@FGG\|.lD7"pDarc#XJmWWA,.y\mh-#qykW;Aq<yke$;wGntJ8B|g3,_B>hAs"wZAFcJe=JxTPv]fhPpD);/h;h	7v*@j)qnwKo)SX_n][+ubv_X{'C	/71552+,x< z8z4{Jj
QHeO}2Ie3LZ!an_s}'=ilG3-BrBnMC4'rF1tE()^eR`Xd<^qn*gK9FGWv%@0v,a])HpHC!7rggtVZA;#yl:X
]pXL8s	p&i:ox	amj8g\$*7u,	*^)s{cwJ4w8qE|^p8'bI]:y}?ez|)8$gM/0Oju'@$s<w
fBcf1xhFD&aPN=pJ}1Z&R?

F_V'?gv%!).8[q!!"^DV|g>gsm%O*a`TYQL*ZLjj.g[,RCxo3{rP[ie|jY[
dYxE&\vW`-4Qbg!	0
m;1!EI@X*aaMv8Y)g=<B?^	U,7_Fdx6, LHsWk
ujf"J7H<B @>fj:L-,IIf(Ojg'l6&*4=Im1eD/PFJWax[ OPUiAg aa$ :g0]9{Ok=.[2lILh$mcQ9}_nLO+>'0:s:9KJp?,<rzxST{JJE12D5?*1Hkb1NNv2lTC= ^{j1bOXG1DFJa9Ne
 C`qwH$]<W1J]f7xvHf<
DX:rvsS	cNByCX@zhg2Vm84!lam]zQ@:#X"+2wTwkY/>ly{\Ig9`@?Ma896{ a;&Rp0x8[`>*So0%\@ji5^	3`P}RUFOdFi=*`:s,[.%
6LA%_T@fUPU1WVz=VlSb|0(	@1vE[n t9Y(xj
So3{,+LlAc/%H\T	(S|(G6
iIl3!;>PD,T)&w7;bbn{iI=*}%!O	FD:k.%sFy^7b;D!{O F#<cj!0rM\<U2:tP'9Sw-?LqTnB|7[vnSi%LCy/]V<3(\GQSWx4dib)wobNX
O`okp=:_O{vEq	Wa&TB3iIHow)N^p/OD	f dH$'	<9eaK3J%^9L]<s-r"jISD|G3i!
,EI}b<4pzy,NQGF+{: EEk,tT`ov6	C
=i7Zf=YDM4BG*GP#o0!psR&	o2;Jfo90vqQ9YZpJz7765QRijDs ;7K)oO,f|.!Mo4
$mv M`|+2Q%tOOS(95t$IEd$eCeBP#nJOA-I_(jDL7"	+"!9L<4noSP{+*nv&N*33>0cG4MktK 	W9OSi"_Lhp*2.5c,'|b3!})N-kCMhu)\$<"4i0JIQ	&;Ri5"	&nRT	FgS30N]b'.PFJy,!{v3<Wsoj'pSKF&T"t(Qh'W?aO@I>Bt<'_REW=#0IhSdBFC-4;@[XXq0"m<+%8d>^wLB'9$_!\Z=43A@Ga}c_`"F2C4H;YFaKwV
e|[D)#w%xhq,<MHtNUf		 9N>P}g4@;`t8#O^XvKszez8dDbHYtU=)%u7Tyjfbk:+>->)3i=s:Bfe!0Rf/XS[\GM,[%kER,;ybfdXnyn?|y;p$
l=kO_=LkF]T=TIyAHtc"Y0pd!#XWtu
-HquN,^OrVD'^58k!FPh+(hWjEY/$+Oc{<fFW=J/3w#!ODJ}P[Qo$;kOkm{YD3!diB]"|QJ+DLEY#-0.}4gMK84O{mP @Fs{(2f"5U..M5(x6.0-"F,mjIPGvaOaE	qf:}v.2R<2lhHIeU_r?:	:\}&8&DlNuygDPi#ABlv5I;hAiz,KhUt)-e]md\G*(	O9(	T]WtQ:cf/2}h=v;!8+(#@dWhHX{T'A=mLU|^>R'H{Lm,F-i;K
V{fnD049+(q`LEG`{2vk*r1`FP-{[5"Rudh"6VBn3z?"PAFzQA8I\x^YYr&\c3oYJ>h/SRZ94{%gF-=@-wvfEjeL&Bm-LAF
%t#S!}`cIc{Kk0iVP'1t)Us8?7w4W	o49oA`@j8hS;<Es`'V6I/8'3]V4r,4x[:|_'l5NjV5d4$	B)\R*|QY>h\<#,\bECSbC<c}/P>u.;^5g_)l	2;VNRO{"|*k_>_Z@2^/mMLk?I|>[#kcVr&]=7e5)[_|c ['`O/+)=1|>:asy/V2d:r>2d=S],%A{08$%,>}dJ9V
%/EO).
PB[Qj0Ol!
gKM2E@ExmlHSc9IoS%7m0=_ /x`^m'C+7[
hD<.6u&*/i6gs#p.W6
iht5i>Zts@^c).@at.(B> < 	/dl&W17q^ $2[^kEI#9]5f}P()]$vM:fFZoQLaDDI`l7u8$|WlaXah&!K M?KiX{%+W|OlR$f|lm*)!g4L>IW3)H1%z\5tSt'p DO/qq5:b041$q\2]7SW}K{&W+bXi^v*dO_BmI NP2#r01Zf<Sxk?p"K %{Y[1sQ&NfZO>J'SQS&jSe+e>8yGlD\`\H5l8QRWd?m:bg	W7<u{)SBY3GYrykfMEIj5 .2qyt4TA^Jr-H]``eeZ)^AQAJ$+@y=8(L79(W%b
RS)}l01C@qao6Nw3<\&is5\3R5P[wGbLK=T[dI:Z!
vd>/@b?Y) `BmAmpDeWL[W
NKEI
!=et46dQv5<YpMU!UTdMgYB90"<eqkMBxbw=`y"V@-"S%u@7aF!zoMFX*+NGrUY1L0URnt y$Y.8#"iOaH\Ji%b&[7)$IW<eMAe#\4C^:|o;<=S&bV.NN|9 !4Lknlqun56*3E	],h3L0OMJVg'vHX\|w23.A;gZ3-{{DXVqvQ}&x K7B)1iLRc&FWE=bf*,!?0
y!*Qi]Dgtx$E&	)8EQb
`os2jWNG;!^.TfvhrwNiA*BX{1w_)x(#|"dB\+s7aRcxBeN}wjMLgt
jrM5uQ.rPejD)_f|fC@<ByA||q\Uy2U0gd)zd9ab5o[[in;ozOq,R<?K|Qg1wkPWS>[w$|@\1	x0N<="|jZzn Q?Qbz%baR	jpKHS0PDh+{_K6.p8'/Bm4TZq*A"dwXG&`2Cj*<fXqjoEDe2k@Lj:oMVQ0c[1YaKdDP2x{vI-*t#Yq0Havqr6<
m5Lnt[cTJ)QM9"GQWYtc*gp".w_[nHL`M]wo5*d.?[64^A+\L.94|D1yb11Yl\H.*Gpbll|/}^,3vMP<|B%|Bd"3M	m<GGAdS_VTq#}6[6LK\{i>%yu=0crdpq3Tr$/oy([_r1c<A\UG<*x!h%cQRO1fE+P&&i@k	qn0:mA-I`0Rl5WnT&q^'aq8;Q?6/XNaiV@iD,;b)-e!DW^8JDhY="2<wb.J!w<S .D!we.gmp.W kE?S<CNkk=H.O-@25z;SwpQ"98&tOkp_ra|T M
Z|gp\^%Qn[zR4V0RT27z`m_QfB;),@w*wj0}Y2dEU[uxO6a=0D8^`,R};;-2seFQ"+z
SN"/7c4Uk%K;O@{DB9klY%\j<}kKkDMR4g&A^28$R!X@^]#J .>Y`f\>O4o26ib$/ ,01]el>?!	W{O={Xge>>:.LPz`ew-u?YA'uLn7:ja9#
50.C*/.)}Vib:W\n5R3.M6dW_RYK'v,X1Hj%X(lF}Ivs@DP./RMc<-(.	X-noL&T>-wXwd)iW$Y"
[jnz-p9}Z|cR8GEi_f02^Ok`_4CSiD;eD5{8l+(=/eNw/(8*q}$9Cmqk;W6-+Bgdd2_[naP^l$%i[muiKqr2ZM?hPjo}>M"T"Va!XZ+;X8Fruu/.Kz*>81I aw'(j
=Sx}#gUWj|:}4:*u1z7XE9|
&tv%}2+o}=O^pahYaa$&aJ_g!!rvi0&.RlL%T!O<TsZ9_'0(VFu64,->J:
|6;DAV,E&8wL>g\cncci.{XRT|B48)(H@D}-4,,OO6	
SgX2V}<f5`s-@	S?xgUsSLaLI[buO}:Qn-TIvXFs&oAT}f-}m[=Ws>*OK&|2S7[0"7B6[
Y.W(Bo\O9IT8AK(-pDKX6	?>NFp3&:P4g|m-.A:fL,!OllRtKvmDXz2HD!`Q'	)7p)Seuj"-I%[lyi8DnI:Ux)VEj@O]WUndN"m]55no" C/
LxVc(c@	P^mlW#Z?=f0bl[	P0eYW15+w,obg0".a"g.r|7(B}CR]Co`iN!rodZ(kNh>ki1V'W2O?uNQ<21Iij@>GoDR^L;,T7J,.((HkhcUw}u,[be|Fy|uHYnmkaT-3_\=xRFhd+m^Ma'4q/@.LE]GA0ty,9uIc_PaT_{c7=uqn|z,%,7tR6lfY{Chk^kqPhZ'\ ]%8PT*b5qBxNa
TXkS7A2tkO1slYKnCCxD[EDG3''Z-UDYt\WFPOeM{*yqi	ZDSZwD'
]w1YR3
P+h@cW@3vYW!5d No+U?>-lH{WDj'"1b5\(lrj|g1jYNf.d)vpS"\%YThA#a*\"K<EYY{.h`.Qf!#::SJ1E_o 0$7bt^q(93OUt)?v7mguh-T9TG>1a'J0AJ?qM
,+2\b6ko;<F8k:,hR&y33"	(cmLn"'?)	fTd)7#esMmDSGZO|,2=u&Lv]3'`3wLb/wXB!.^ZbARlo/<b:5_FPO7iTrvCjL@}ru"h,2.tJ0W
Av&Yayq8j/jbd1iPNjEE+$<<jEtyRt$_{e}eY@v>WTPc3<x_'O-,5xLMIsiz6RI{F#g,T<)iJYN=!fYtkT{M1,FI
4=Pfe
Wmc|LL+^|Ji[rmBk-$l+At
$@MnC3I5qsqOmPk2aUn=,(cy41}Ltw?UwXW*/=g*,
t@mEe(|[`N(7{fh)`^qqd-Q
E#Oxl	4=oR]!D-?7_1erezI>Qnd%P.:akDR;P2]k9]hWXv1Z/I`n)A>mvg9)v#$*o	su=u+2Xd75cMVXIUbZEv_uZ
+Bx&B.`,UfG/yy!Z$iJNB6}/)2gbFyI|u3=$Eb;!"o|\Zh8FW|g^[0Z6$X@3qLb|e
"v"C}pOu?(GJ{2mFdHg/snUPnS-=`A\V\Fc8g;+?	XvT`"yhmA4")(_0pMk*;.@^<H%LVBH_LZ})1c]#?FH#SaqFXvRjy]qRJkIo/_F^3L4=Ku)u_dUQ@9*a-D`s|1J$[OI2@@!,0`OmW4r+z7]s-	3GB_/yLCFHIE\JXS(`O
2PxjK;2^0*9[zNf\s&zP@R1"PzC7Osg/##5P&Y>V;d!a{/KWn(K/#<lZ$%+N=nDS0IZp`m:Tc2B\.>hnz_'9+'l|&8^jJ9|r_Yxj[h^AM_!=}juw'.[1w?nYQ"!GtVtIR&?(w5Roc^]UM*,"x!+nfTG!iOU8eL!:sG#O{>Is>{7da/\$fT
b@9/=.H	{(uZX(Xl:m]s{Trg:`:(A_KwoM$}<`5a9[X3p9im9?k_N*Z}sxMd\{1O
!*L2.\MaI@ llK?'Xt)nHm3&*M5bg#	A(};WcUnI)|<B4loZHg}2N&1Yu>N4+zIRg#hUkt_yT.r73'L|}roP()L{TTo.&qq3{10CF+.bhrJ3-IU$c478Hg&KO$#pWN"]9&AB5?>h^t"67KeS@qLyh8wC6xq$%7L!tJv_e/s^